Circuit: * F:\Data\OneDrive - University of St Andrews\St Andrews\PhD_Study_R&D\Tasks\Task1_sample holder\Shimming coil\LTspice_Electronic_drivers\Current booster.asc

Warning: Multiple definitions of model "2scr375p" Type: BJT
Warning: Multiple definitions of model "bc857b" Type: BJT
Warning: Multiple definitions of model "bc847c" Type: BJT
Warning: Multiple definitions of model "bc847b" Type: BJT
Limiting rise time of source v§pwm to 2.6e-05
Limiting fall time of source v§pwm to 2.6e-05
Direct Newton iteration for .op point succeeded.

Date: Thu Oct 26 21:09:43 2023
Total elapsed time: 0.945 seconds.

tnom = 27
temp = 27
method = modified trap
totiter = 69789
traniter = 69772
tranpoints = 34876
accept = 27299
rejected = 7577
matrix size = 21
fillins = 10
solver = Normal
Avg thread counts: 3.0/2.0/1.0/1.0
Matrix Compiler1:      99 opcodes  0.6/[0.4]/0.5
Matrix Compiler2: off  [0.3]/0.4/1.0

