Circuit: * F:\Data\OneDrive - University of St Andrews\St Andrews\PhD_Study_R&D\Tasks\Task1_sample holder\Shimming coil\LTspice_Electronic_drivers\OpAmp.asc

Limiting rise time of source v§pwm to 6e-06
Limiting fall time of source v§pwm to 6e-06
Direct Newton iteration for .op point succeeded.

Date: Thu Oct 26 21:10:14 2023
Total elapsed time: 0.425 seconds.

tnom = 27
temp = 27
method = modified trap
totiter = 92413
traniter = 92410
tranpoints = 46206
accept = 37119
rejected = 9087
matrix size = 7
fillins = 0
solver = Normal
Avg thread counts: 1.0/1.0/1.0/1.0
Matrix Compiler1: 214 bytes object code size  0.2/0.2/[0.1]
Matrix Compiler2: 467 bytes object code size  0.1/0.2/[0.1]

